[TITLE]


[JUNCTIONS]
;ID              	Elev        	Demand      	Pattern         
 OC3079913       	20.051      	3           	day             	;用水点
 OC3080464       	27.297      	0.0         	                	;三通
 OC3080522       	14.409      	0.0         	                	;阀门
 OC3081197       	16.698      	0.0         	                	;三通
 OC3081457       	24.749      	0.0         	                	;三通
 OC3081464       	11.563      	0.0         	                	;泄水
 OC3081873       	13.614      	0.0         	                	;直线点
 OC3082230       	23.919      	0.0         	                	;弯头
 OC3083173       	31.556      	0.0         	                	;三通
 OC3083418       	15.823      	0.0         	                	;弯头
 OC3084113       	14.913      	0.0         	                	;直线点
 OC3084602       	16.689      	0.0         	                	;直线点
 OC3084643       	21.534      	0.0         	                	;弯头
 OC3084706       	24.352      	0.0         	                	;变径
 OC3084979       	26.568      	0.0         	                	;三通
 OC3085376       	14.571      	0.0         	                	;闸阀
 OC3085428       	21.719      	0.0         	                	;闸阀
 OC3085434       	21.959      	0.0         	                	;闸阀
 OC3085462       	16.434      	0.0         	                	;闸阀
 OC3086696       	28.119      	0.0         	                	;弯头
 OC3087111       	14.656      	0.0         	                	;三通
 OC3087140       	27.65       	0.0         	                	;直线点
 OC3087152       	25.631      	0.0         	                	;弯头
 OC3087266       	24.805      	0.0         	                	;三通
 OC3087646       	16.811      	0.0         	                	;直线点
 OC3087763       	17.105      	0.0         	                	;三通
 OC3088098       	17.343      	0.0         	                	;泄气
 OC3088148       	25.917      	0.0         	                	;三通
 OC3088553       	16.827      	0.0         	                	;三通
 OC3088566       	21.837      	0.0         	                	;三通
 OC3088602       	30.508      	0.0         	                	;三通
 OC3089192       	19.204      	0.0         	                	;直线点
 OC3089792       	33.998      	0.0         	                	;弯头
 OC3090653       	27.44       	0.0         	                	;弯头
 OC3091084       	21.502      	0.0         	                	;直线点
 OC3091435       	14.738      	0.0         	                	;三通
 OC3091877       	29.76       	0.0         	                	;直线点
 OC3092644       	14.253      	0.0         	                	;直线点
 OC3092758       	14.908      	0.0         	                	;直线点
 OC3094422       	13.053      	0.0         	                	;三通
 OC3095136       	33.826      	0.0         	                	;三通
 OC3095383       	15.091      	0.0         	                	;直线点
 OC3097296       	13.141      	0.0         	                	;三通
 OC3097403       	15.826      	0.0         	                	;直线点
 OC3097503       	16.495      	0.0         	                	;直线点
 OC3097906       	28.098      	0.0         	                	;直线点
 OC3099694       	15.746      	0.0         	                	;直线点
 OC3100148       	14.712      	0.0         	                	;阀门井
 OC3100221       	19.756      	0.0         	                	;直线点
 OC3101325       	29.207      	0.0         	                	;直线点
 OC3101486       	17.459      	0.0         	                	;三通
 OC3101810       	14.123      	0.0         	                	;三通
 OC3102578       	38.706      	0.0         	                	;弯头
 OC3102781       	15.37       	0.0         	                	;直线点
 OC3103135       	27.389      	0.0         	                	;三通
 OC3103982       	32.525      	0.0         	                	;三通
 OC3104246       	21.593      	0.0         	                	;直线点
 OC3104368       	12.844      	0.0         	                	;直线点
 OC3104703       	16.143      	0.0         	                	;直线点
 OC3105108       	26.276      	0.0         	                	;弯头
 OC3105889       	19.225      	0.0         	                	;直线点
 OC3105952       	15.207      	0.0         	                	;弯头
 OC3106841       	25.917      	0.0         	                	;直线点
 OC3107067       	25.383      	0.0         	                	;弯头
 OC3107436       	14.446      	0.0         	                	;三通
 OC3109335       	29.527      	0.0         	                	;直线点
 OC3109348       	11.367      	0.0         	                	;直线点
 OC3109571       	18.303      	0.0         	                	;直线点
 OC3110522       	24.989      	0.0         	                	;弯头
 OC3110918       	15.744      	0.0         	                	;三通
 OC3110934       	16.4        	0.0         	                	;直线点
 OC3110998       	24.604      	0.0         	                	;直线点
 OC3111447       	27.513      	0.0         	                	;直线点
 OC3111696       	21.924      	0.0         	                	;直线点
 OC3111704       	25.731      	0.0         	                	;变材
 OC3111736       	18.483      	0.0         	                	;直线点
 OC3111944       	27.964      	5           	day             	;用水点
 OC3112307       	21.476      	0.0         	                	;弯头
 OC3112418       	18.857      	0.0         	                	;直线点
 OC3112890       	15.385      	0.0         	                	;直线点
 OC3113263       	27.318      	0.0         	                	;三通
 OC3114021       	15.202      	0.0         	                	;三通
 OC3114130       	18.882      	0.0         	                	;三通
 OC3114223       	21.232      	0.0         	                	;直线点
 OC3115433       	14.582      	0.0         	                	;直线点
 OC3116714       	16.451      	0.0         	                	;三通
 OC3116757       	13.591      	0.0         	                	;三通
 OC3117399       	13.532      	0.0         	                	;三通
 OC3117684       	27.903      	0.0         	                	;直线点
 OC3118198       	26.967      	0.0         	                	;弯头
 OC3118257       	25.95       	0.0         	                	;直线点
 OC3119035       	28.987      	0.0         	                	;直线点
 OC3119334       	30.105      	0.0         	                	;直线点
 OC3119879       	25.238      	0.0         	                	;变材
 OC3120022       	15.433      	0.0         	                	;三通
 OC3120476       	15.231      	0.0         	                	;弯头
 OC3120616       	17.634      	0.0         	                	;直线点
 OC3120877       	14.908      	0.0         	                	;直线点
 OC3121864       	33.841      	0.0         	                	;三通
 OC3121961       	15.283      	0.0         	                	;直线点
 OC3122789       	25.496      	0.0         	                	;弯头
 OC3122924       	13.939      	0.0         	                	;预留口
 OC3123052       	24.751      	0.0         	                	;弯头
 OC3123063       	15.183      	0.0         	                	;直线点
 OC3123065       	15.092      	0.0         	                	;弯头
 OC3123837       	20.891      	5           	day             	;用水点
 OC3124477       	14.517      	0.0         	                	;直线点
 OC3124852       	15.029      	0.0         	                	;三通
 OC3125059       	16.837      	0.0         	                	;弯头
 OC3125394       	15.368      	0.0         	                	;预留口
 OC3126098       	16.45       	0.0         	                	;三通
 OC3127068       	21.615      	0.0         	                	;非探测区
 OC3127127       	14.703      	0.0         	                	;三通
 OC3127156       	15.673      	0.0         	                	;直线点
 OC3127341       	33.432      	0.0         	                	;弯头
 OC3127404       	14.544      	0.0         	                	;直线点
 OC3127735       	16.659      	0.0         	                	;弯头
 OC3128055       	25.68       	0.0         	                	;弯头
 OC3129952       	18.04       	0.0         	                	;弯头
 OC3130851       	14.395      	0.0         	                	;弯头
 OC3130993       	17.897      	0.0         	                	;弯头
 OC3131067       	29.39       	0.0         	                	;直线点
 OC3131300       	16.837      	0.0         	                	;三通
 OC3131474       	37.885      	0.0         	                	;泄气
 OC3131605       	14.907      	0.0         	                	;三通
 OC3132330       	16.789      	0.0         	                	;直线点
 OC3132661       	26.647      	0.0         	                	;直线点
 OC3132857       	29.918      	0.0         	                	;三通
 OC3132927       	28.849      	0.0         	                	;直线点
 OC3132929       	26.089      	0.0         	                	;直线点
 OC3133084       	28.464      	0.0         	                	;直线点
 OC3133631       	16.357      	0.0         	                	;变径
 OC3134472       	26.678      	0.0         	                	;直线点
 OC3134692       	28.759      	0.0         	                	;三通
 OC3135109       	28.086      	0.0         	                	;弯头
 OC3135115       	19.611      	0.0         	                	;直线点
 OC3135237       	17.385      	0.0         	                	;三通
 OC3135476       	28.88       	0.0         	                	;直线点
 OC3136747       	15.234      	0.0         	                	;直线点
 OC3136813       	28.409      	0.0         	                	;直线点
 OC3137094       	18.715      	0.0         	                	;直线点
 OC3138578       	19.852      	0.0         	                	;三通
 OC3138622       	15.981      	0.0         	                	;直线点
 OC3139212       	20.36       	0.0         	                	;直线点
 OC3139269       	15.378      	0.0         	                	;泄气
 OC3140227       	17.121      	0.0         	                	;直线点
 OC3140726       	14.646      	0.0         	                	;弯头
 OC3140860       	33.864      	0.0         	                	;泄气
 OC3141065       	38.308      	0.0         	                	;三通
 OC3141172       	12.507      	0.0         	                	;三通
 OC3141453       	15.043      	0.0         	                	;闸阀
 OC3141455       	33.555      	0.0         	                	;阀门
 OC3141468       	15.164      	0.0         	                	;蝶阀
 OC3141498       	16.341      	0.0         	                	;蝶阀
 OC3141534       	17.254      	0.0         	                	;闸阀
 OC3141541       	17.444      	0.0         	                	;闸阀
 OC3141777       	13.672      	0.0         	                	;三通
 OC3141954       	32.802      	0.0         	                	;弯头
 OC3141998       	35.27       	0.0         	                	;阀门
 OC3142199       	15.497      	0.0         	                	;三通
 OC3142282       	14.538      	0.0         	                	;三通
 OC3142332       	33.915      	0.0         	                	;阀门
 OC3142911       	12.936      	0.0         	                	;三通
 OC3143207       	15.217      	0.0         	                	;直线点
 OC3143711       	15.118      	0.0         	                	;三通
 OC3143780       	13.534      	0.0         	                	;直线点
 OC3143968       	15.823      	0.0         	                	;三通
 OC3143980       	19.068      	0.0         	                	;三通
 OC3144415       	18.273      	0.0         	                	;阀门井
 OC3144533       	18.353      	0.0         	                	;三通
 OC3146105       	13.857      	0.0         	                	;直线点
 OC3146312       	26.645      	0.0         	                	;三通
 OC3146333       	28.241      	0.0         	                	;直线点
 OC3146382       	11.89       	0.0         	                	;直线点
 OC3146779       	16.449      	0.0         	                	;直线点
 OC3148058       	28.437      	0.0         	                	;直线点
 OC3148106       	15.545      	0.0         	                	;三通
 OC3148297       	27.73       	0.0         	                	;直线点
 OC3149159       	33.907      	0.0         	                	;弯头
 OC3151647       	38.19       	0.0         	                	;弯头
 OC3151860       	26.947      	0.0         	                	;三通
 OC3152060       	16.781      	0.0         	                	;三通
 OC3152099       	14.522      	0.0         	                	;阀门井
 OC3152481       	15.419      	0.0         	                	;三通
 OC3152501       	17.425      	0.0         	                	;三通
 OC3153198       	17.122      	0.0         	                	;直线点
 OC3153872       	28.32       	0.0         	                	;直线点
 OC3154173       	26.522      	0.0         	                	;弯头
 OC3154232       	14.406      	0.0         	                	;直线点
 OC3154995       	13.715      	0.0         	                	;三通
 OC3155023       	14.042      	0.0         	                	;直线点
 OC3155098       	25.881      	0.0         	                	;弯头
 OC3155401       	30.834      	0.0         	                	;弯头
 OC3156340       	14.348      	0.0         	                	;三通
 OC3156455       	17.423      	0.0         	                	;直线点
 OC3156560       	16.088      	0.0         	                	;直线点
 OC3157264       	15.065      	0.0         	                	;直线点
 OC3158014       	14.042      	0.0         	                	;弯头
 OC3158122       	16.464      	0.0         	                	;弯头
 OC3158758       	12.376      	0.0         	                	;直线点
 OC3158845       	18.154      	0.0         	                	;三通
 OC3159310       	15.183      	0.0         	                	;直线点
 OC3159976       	35.351      	0.0         	                	;三通
 OC3161588       	16.268      	0.0         	                	;直线点
 OC3161859       	27.604      	0.0         	                	;直线点
 OC3162445       	13.91       	0.0         	                	;闸阀
 OC3162567       	23.755      	0.0         	                	;三通
 OC3163195       	24.74       	0.0         	                	;变材
 OC3164254       	25.194      	0.0         	                	;直线点
 OC3164564       	38.185      	0.0         	                	;弯头
 OC3164971       	17.558      	0.0         	                	;直线点
 OC3165167       	15.05       	0.0         	                	;三通
 OC3165641       	13.282      	0.0         	                	;泄气
 OC3165961       	26.507      	0.0         	                	;直线点
 OC3166003       	15.763      	0.0         	                	;三通
 OC3166182       	17.647      	0.0         	                	;直线点
 OC3166224       	26.971      	0.0         	                	;直线点
 OC3166417       	13.399      	0.0         	                	;直线点
 OC3166814       	14.998      	0.0         	                	;三通
 OC3167258       	15.294      	0.0         	                	;三通
 OC3167670       	17.521      	0.0         	                	;三通
 OC3167688       	37.992      	0.0         	                	;弯头
 OC3168135       	12.638      	0.0         	                	;弯头
 OC3168180       	24.525      	0.0         	                	;泄气
 OC3168444       	33.946      	0.0         	                	;弯头
 OC3169162       	13.842      	0.0         	                	;弯头
 OC3169310       	16.557      	0.0         	                	;直线点
 OC3169789       	35.501      	0.0         	                	;三通
 OC3169798       	36.608      	0.0         	                	;泄气
 OC3170145       	13.874      	0.0         	                	;直线点
 OC3170376       	19.556      	0.0         	                	;直线点
 OC3171685       	27.972      	0.0         	                	;直线点
 OC3171696       	28.915      	0.0         	                	;直线点
 OC3171860       	15.266      	0.0         	                	;泄气
 OC3171998       	21.232      	0.0         	                	;直线点
 OC3172047       	33.933      	0.0         	                	;三通
 OC3172073       	25.43       	0.0         	                	;直线点
 OC3172463       	14.556      	0.0         	                	;弯头
 OC3173347       	14.92       	0.0         	                	;变材
 OC3174636       	25.604      	0.0         	                	;变材
 OC3174897       	17.234      	0.0         	                	;直线点
 OC3176044       	33.033      	0.0         	                	;直线点
 OC3176208       	26.849      	0.0         	                	;直线点
 OC3176520       	18.311      	0.0         	                	;直线点
 OC3177201       	21.171      	0.0         	                	;直线点
 OC3177864       	17.423      	0.0         	                	;闸阀
 OC3177878       	33.826      	0.0         	                	;阀门
 OC3177918       	26.666      	8           	day             	;用水点
 OC3177923       	25.124      	0.0         	                	;阀门
 OC3177936       	14.575      	0.0         	                	;阀门
 OC3177969       	35.963      	0.0         	                	;阀门
 OC3177981       	36.13       	0.0         	                	;阀门
 OC3178023       	30.254      	0.0         	                	;阀门
 OC3178066       	28.516      	0.0         	                	;阀门
 OC3178081       	25.044      	0.0         	                	;阀门
 OC3178085       	24.283      	0.0         	                	;阀门
 OC3178088       	30.01       	0.0         	                	;阀门
 OC3178832       	35.474      	0.0         	                	;弯头
 OC3179343       	24.841      	0.0         	                	;弯头
 OC3180801       	32.268      	0.0         	                	;弯头
 OC3180965       	26.302      	0.0         	                	;直线点
 OC3181786       	33.966      	0.0         	                	;三通
 OC3181892       	14.512      	0.0         	                	;直线点
 OC3181944       	11.691      	0.0         	                	;直线点
 OC3182236       	11.291      	0.0         	                	;三通
 OC3183170       	14.009      	0.0         	                	;弯头
 OC3184117       	17.927      	0.0         	                	;直线点
 OC3184155       	35.155      	0.0         	                	;弯头
 OC3184324       	16.703      	0.0         	                	;直线点
 OC3184352       	17.075      	0.0         	                	;弯头
 OC3184417       	22.574      	0.0         	                	;弯头
 OC3184959       	15.3        	0.0         	                	;直线点
 OC3184978       	16.222      	0.0         	                	;弯头
 OC3185095       	28.132      	0.0         	                	;三通
 OC3185908       	23.081      	0.0         	                	;直线点
 OC3186333       	17.046      	0.0         	                	;弯头
 OC3186418       	27.334      	0.0         	                	;三通
 OC3186726       	16.493      	0.0         	                	;直线点
 OC3187237       	17.524      	0.0         	                	;直线点
 OC3187730       	32.276      	0.0         	                	;三通
 OC3187734       	21.185      	0.0         	                	;弯头
 OC3187794       	18.541      	0.0         	                	;直线点
 OC3187834       	31.884      	0.0         	                	;直线点
 OC3187946       	16.51       	0.0         	                	;三通
 OC3188385       	36.198      	0.0         	                	;泄气

[RESERVOIRS]
;ID              	Head        	Pattern         
 OC3113012       	50          	day             	;水库
 OC3153350       	50          	day             	;水库
 OC3168636       	50          	day             	;水库

[TANKS]
;ID              	Elevation   	InitLevel   	MinLevel    	MaxLevel    	Diameter    	MinVol      	VolCurve

[PIPES]
;ID              	Node1           	Node2           	Length      	Diameter    	Roughness   	MinorLoss   	Status
 OC2998191       	OC3184324       	OC3087111       	27.1507421818	1200.0      	0.1         	0           	Open  	;
 OC2998192       	OC3141498       	OC3102781       	66.8755375527	1000.0      	0.1         	0           	Open  	;
 OC2998193       	OC3102781       	OC3124477       	62.3106530132	1000.0      	0.1         	0           	Open  	;
 OC2998194       	OC3124477       	OC3181892       	62.2457770541	1000.0      	0.1         	0           	Open  	;
 OC2998195       	OC3181892       	OC3092644       	67.7741219604	1000.0      	0.1         	0           	Open  	;
 OC2998196       	OC3092644       	OC3120022       	31.2798147908	1000.0      	0.1         	0           	Open  	;
 OC2998198       	OC3120022       	OC3141468       	6.62233907674	1000.0      	0.1         	0           	Open  	;
 OC2998200       	OC3141468       	OC3166814       	2.58402733567	1000.0      	0.1         	0           	Open  	;
 OC2998201       	OC3141453       	OC3123065       	0.56525649426	500.0       	0.1         	0           	Open  	;
 OC2998202       	OC3166814       	OC3173347       	5.36656763275	1000.0      	0.1         	0           	Open  	;
 OC2998203       	OC3166814       	OC3141453       	0.80245359628	500.0       	0.1         	0           	Open  	;
 OC2998204       	OC3173347       	OC3139269       	53.6366947841	1000.0      	0.1         	0           	Open  	;
 OC2998205       	OC3123065       	OC3168135       	17.0551597282	500.0       	0.1         	0           	Open  	;
 OC2998206       	OC3168135       	OC3081464       	6.70185722616	500.0       	0.1         	0           	Open  	;
 OC2998249       	OC3087111       	OC3177936       	1.09735894244	1200.0      	0.1         	0           	Open  	;
 OC2998250       	OC3186726       	OC3146779       	51.9419419789	1200.0      	0.1         	0           	Open  	;
 OC2998251       	OC3186726       	OC3087646       	56.048899601	1200.0      	0.1         	0           	Open  	;
 OC2998252       	OC3087646       	OC3140227       	58.9971611554	1200.0      	0.1         	0           	Open  	;
 OC2998253       	OC3140227       	OC3082230       	56.1385818326	1200.0      	0.1         	0           	Open  	;
 OC2998254       	OC3082230       	OC3161588       	50.5121766053	1200.0      	0.1         	0           	Open  	;
 OC2998255       	OC3161588       	OC3187237       	67.543688283	1200.0      	0.1         	0           	Open  	;
 OC2998256       	OC3187237       	OC3184117       	46.1042480503	1200.0      	0.1         	0           	Open  	;
 OC2998257       	OC3184117       	OC3109571       	54.6463390552	1200.0      	0.1         	0           	Open  	;
 OC2998258       	OC3109571       	OC3176520       	46.807038384	1200.0      	0.1         	0           	Open  	;
 OC2998259       	OC3176520       	OC3112418       	61.5668819563	1200.0      	0.1         	0           	Open  	;
 OC2998260       	OC3112418       	OC3100221       	55.4360961539	1200.0      	0.1         	0           	Open  	;
 OC2998261       	OC3100221       	OC3170376       	56.0629639671	1200.0      	0.1         	0           	Open  	;
 OC2998262       	OC3170376       	OC3187734       	44.4623749667	1200.0      	0.1         	0           	Open  	;
 OC2998308       	OC3139269       	OC3125394       	1.81470232498	1000.0      	0.1         	0           	Open  	;
 OC2998362       	OC3084706       	OC3141541       	7.08231785733	1200.0      	0.1         	0           	Open  	;
 OC2998363       	OC3141541       	OC3135237       	1.7668895411	1200.0      	0.1         	0           	Open  	;
 OC2998364       	OC3135237       	OC3087763       	3.83056822926	1200.0      	0.1         	0           	Open  	;
 OC2998365       	OC3166182       	OC3141534       	36.5157478445	800.0       	0.1         	0           	Open  	;
 OC2998366       	OC3141534       	OC3087763       	1.21573697708	800.0       	0.1         	0           	Open  	;
 OC2998367       	OC3087763       	OC3184324       	21.4876349916	1200.0      	0.1         	0           	Open  	;
 OC2998368       	OC3164971       	OC3135237       	6.48720611603	1200.0      	0.1         	0           	Open  	;
 OC2998372       	OC3133631       	OC3141498       	1.60104500214	1000.0      	0.1         	0           	Open  	;
 OC2998710       	OC3103135       	OC3106841       	36.0822417703	500.0       	0.1         	0           	Open  	;
 OC2998711       	OC3118257       	OC3132661       	24.3978481718	500.0       	0.1         	0           	Open  	;
 OC2998712       	OC3132661       	OC3166224       	47.370974855	500.0       	0.1         	0           	Open  	;
 OC2998713       	OC3113263       	OC3087140       	52.0798121773	500.0       	0.1         	0           	Open  	;
 OC2998714       	OC3117684       	OC3136813       	7.57838230287	500.0       	0.1         	0           	Open  	;
 OC2998715       	OC3136813       	OC3148058       	39.0804604751	500.0       	0.1         	0           	Open  	;
 OC2998716       	OC3133084       	OC3134692       	37.2153654849	500.0       	0.1         	0           	Open  	;
 OC2998717       	OC3134692       	OC3132927       	30.5020838839	500.0       	0.1         	0           	Open  	;
 OC2998718       	OC3132927       	OC3135476       	35.7165810956	500.0       	0.1         	0           	Open  	;
 OC2998719       	OC3171696       	OC3101325       	37.6131161606	500.0       	0.1         	0           	Open  	;
 OC2998720       	OC3109335       	OC3119334       	22.015046303	500.0       	0.1         	0           	Open  	;
 OC2998721       	OC3119334       	OC3132857       	48.7640990734	500.0       	0.1         	0           	Open  	;
 OC2998722       	OC3132857       	OC3091877       	19.5151763835	500.0       	0.1         	0           	Open  	;
 OC2998723       	OC3091877       	OC3131067       	48.9724650928	500.0       	0.1         	0           	Open  	;
 OC2998724       	OC3119035       	OC3153872       	60.4391712598	500.0       	0.1         	0           	Open  	;
 OC2998725       	OC3153872       	OC3185095       	68.3157445322	500.0       	0.1         	0           	Open  	;
 OC2998726       	OC3185095       	OC3148297       	72.7735179815	500.0       	0.1         	0           	Open  	;
 OC2998727       	OC3148297       	OC3171685       	36.8698046508	500.0       	0.1         	0           	Open  	;
 OC2998728       	OC3146333       	OC3161859       	51.8924985029	500.0       	0.1         	0           	Open  	;
 OC2998729       	OC3161859       	OC3151860       	37.4125823261	500.0       	0.1         	0           	Open  	;
 OC2998730       	OC3151860       	OC3111447       	46.6074720248	500.0       	0.1         	0           	Open  	;
 OC2998731       	OC3111447       	OC3165961       	42.6973953778	500.0       	0.1         	0           	Open  	;
 OC2998732       	OC3172073       	OC3110998       	64.8484063958	500.0       	0.1         	0           	Open  	;
 OC2998733       	OC3162567       	OC3184417       	74.4264226183	500.0       	0.1         	0           	Open  	;
 OC2998751       	OC3110998       	OC3162567       	66.6562533501	500.0       	0.1         	0           	Open  	;
 OC2998752       	OC3165961       	OC3172073       	45.7076232067	500.0       	0.1         	0           	Open  	;
 OC2998753       	OC3171685       	OC3146333       	40.8600951658	500.0       	0.1         	0           	Open  	;
 OC2998754       	OC3131067       	OC3119035       	53.4306395434	500.0       	0.1         	0           	Open  	;
 OC2998755       	OC3101325       	OC3109335       	41.2324389423	500.0       	0.1         	0           	Open  	;
 OC2998756       	OC3135476       	OC3171696       	40.5041518518	500.0       	0.1         	0           	Open  	;
 OC2998757       	OC3148058       	OC3133084       	38.6153879215	500.0       	0.1         	0           	Open  	;
 OC2998758       	OC3087140       	OC3117684       	39.7480057798	500.0       	0.1         	0           	Open  	;
 OC2998759       	OC3166224       	OC3113263       	50.7914211331	500.0       	0.1         	0           	Open  	;
 OC2998760       	OC3106841       	OC3118257       	55.6653373947	500.0       	0.1         	0           	Open  	;
 OC2998761       	OC3087111       	OC3133631       	1.03858230188	1200.0      	0.1         	0           	Open  	;
 OC2998762       	OC3177936       	OC3136747       	57.4843311337	1200.0      	0.1         	0           	Open  	;
 OC2998763       	OC3136747       	OC3146779       	26.2449647755	1200.0      	0.1         	0           	Open  	;
 OC2998764       	OC3084706       	OC3099694       	128.761291496	500.0       	0.1         	0           	Open  	;
 OC2998765       	OC3099694       	OC3153198       	89.6129382807	500.0       	0.1         	0           	Open  	;
 OC2998766       	OC3153198       	OC3158122       	108.437767551	500.0       	0.1         	0           	Open  	;
 OC2998767       	OC3158122       	OC3088553       	16.1850175627	500         	0.1         	0           	Open  	;
 OC2998770       	OC3088553       	OC3138622       	69.5356970762	500.0       	0.1         	0           	Open  	;
 OC2998771       	OC3138622       	OC3130993       	151.095904878	500.0       	0.1         	0           	Open  	;
 OC2998772       	OC3130993       	OC3129952       	46.9608484499	500.0       	0.1         	0           	Open  	;
 OC2998773       	OC3129952       	OC3114130       	46.8725400912	500.0       	0.1         	0           	Open  	;
 OC2998776       	OC3114130       	OC3091084       	161.199379393	500.0       	0.1         	0           	Open  	;
 OC2998777       	OC3091084       	OC3184417       	83.0121127089	500.0       	0.1         	0           	Open  	;
 OC2998778       	OC3155098       	OC3088148       	73.7383342575	500.0       	0.1         	0           	Open  	;
 OC2998779       	OC3088148       	OC3177923       	0.5660646087	500.0       	0.1         	0           	Open  	;
 OC2998780       	OC3088148       	OC3080464       	160.181314825	500.0       	0.1         	0           	Open  	;
 OC2998783       	OC3080464       	OC3111944       	185.735726504	500.0       	0.1         	0           	Open  	;
 OC2998784       	OC3177918       	OC3186418       	72.9872216274	500.0       	0.1         	0           	Open  	;
 OC2998787       	OC3186418       	OC3083173       	135.629843209	500.0       	0.1         	0           	Open  	;
 OC2998788       	OC3083173       	OC3178023       	0.18267812788	0.1         	0.1         	0           	Open  	;
 OC2998789       	OC3083173       	OC3187730       	136.643436285	500.0       	0.1         	0           	Open  	;
 OC2998796       	OC3187730       	OC3180801       	60.8011327527	500.0       	0.1         	0           	Open  	;
 OC2998797       	OC3180801       	OC3103982       	61.3799431488	500.0       	0.1         	0           	Open  	;